/*--------------------------------*- C++ -*----------------------------------*\
| =========                 |                                                 |
| \\      /  F ield         | OpenFOAM: The Open Source CFD Toolbox           |
|  \\    /   O peration     | Version:  v1912                                 |
|   \\  /    A nd           | Website:  www.openfoam.com                      |
|    \\/     M anipulation  |                                                 |
\*---------------------------------------------------------------------------*/
FoamFile
{
    version     2.0;
    format      ascii;
    class       volVectorField;
    location    "0";
    object      U;
}
// * * * * * * * * * * * * * * * * * * * * * * * * * * * * * * * * * * * * * //

dimensions      [0 1 -1 0 0 0 0];

internalField   uniform (0 0 0);

boundaryField
{
	leftInletWall
	{
        type            fixedValue;
		value			uniform (0.4 0 0);
	}
	leftWall
	{
		type			zeroGradient;
	}
	rightWall
	{
		type			zeroGradient;
	}
	lowerWall
	{
		type			noSlip;
	}
	atmosphere
	{
		type			pressureInletOutletVelocity;
		value			uniform (0 0 0);
	}
	sides
	{
		type			empty;
	}
	defaultFaces
	{
		type			empty;
	}
}


// ************************************************************************* //
